FWH
  CDPL    08202107203D 1   1.00000     0.00000

 51 55  0     0  0            999 V2000
    5.2660   54.1390   87.5320 C   0  0  0  0  0  4           0  0  0
    5.2420   55.5320   87.6070 C   0  0  0  0  0  4           0  0  0
    5.9320   56.3530   86.5750 C   0  0  0  0  0  4           0  0  0
    5.7080   56.1460   85.2760 C   0  0  0  0  0  4           0  0  0
    6.3923   56.9318   85.0328 H   0  0  0  0  0  1           0  0  0
    5.5284   55.9800   84.2343 H   0  0  0  0  0  1           0  0  0
    6.9550   57.2760   87.1420 C   0  0  0  0  0  4           0  0  0
    6.9900   58.6630   86.7770 C   0  0  0  0  0  4           0  0  0
    7.8900   59.4910   87.5030 C   0  0  0  0  0  4           0  0  0
    8.0010   60.8620   87.1460 C   0  0  0  0  0  4           0  0  0
    7.3080   61.3560   86.0700 C   0  0  0  0  0  4           0  0  0
    6.4430   60.5460   85.3480 C   0  0  0  0  0  4           0  0  0
    6.2600   59.2380   85.7000 C   0  0  0  0  0  4           0  0  0
    5.5584   58.6387   85.1583 H   0  0  0  0  0  1           0  0  0
    5.9150   60.9486   84.5089 H   0  0  0  0  0  1           0  0  0
    7.4361   62.3790   85.7838 H   0  0  0  0  0  1           0  0  0
    8.6282   61.5123   87.7193 H   0  0  0  0  0  1           0  0  0
    8.7160   59.0030   88.4920 N   0  0  0  0  0  3           0  0  0
    8.7110   57.7000   88.7520 C   0  0  0  0  0  4           0  0  0
    9.7110   57.2080   89.7480 C   0  0  0  0  0  4           0  0  0
    9.2839   57.2414   90.7285 H   0  0  0  0  0  1           0  0  0
   10.5812   57.8298   89.7166 H   0  0  0  0  0  1           0  0  0
    9.9837   56.2006   89.5118 H   0  0  0  0  0  1           0  0  0
    7.8440   56.8160   88.1070 C   0  0  0  0  0  4           0  0  0
    7.8638   55.7759   88.3574 H   0  0  0  0  0  1           0  0  0
    4.6940   56.1370   88.7450 C   0  0  0  0  0  4           0  0  0
    4.2570   55.3850   89.8240 C   0  0  0  0  0  4           0  0  0
    4.3330   54.0060   89.7530 C   0  0  0  0  0  4           0  0  0
    4.0580   53.0610   90.7240 N   0  0  0  0  0  3           0  0  0
    4.4000   51.8110   90.2340 C   0  0  0  0  0  4           0  0  0
    4.8850   51.9470   88.9210 C   0  0  0  0  0  4           0  0  0
    4.8360   53.3670   88.6090 C   0  0  0  0  0  4           0  0  0
    5.4110   50.8360   88.2800 C   0  0  0  0  0  4           0  0  0
    5.4050   49.6040   88.9210 C   0  0  0  0  0  4           0  0  0
    4.9280   49.4830   90.2160 C   0  0  0  0  0  4           0  0  0
    4.4390   50.5890   90.8940 C   0  0  0  0  0  4           0  0  0
    4.0986   50.5033   91.9048 H   0  0  0  0  0  1           0  0  0
    4.9371   48.5274   90.6972 H   0  0  0  0  0  1           0  0  0
    5.7726   48.7392   88.4093 H   0  0  0  0  0  1           0  0  0
    5.8199   50.9273   87.2954 H   0  0  0  0  0  1           0  0  0
    3.5090   53.3350   92.0410 C   0  0  0  0  0  4           0  0  0
    3.4007   52.4172   92.5803 H   0  0  0  0  0  1           0  0  0
    2.5524   53.8033   91.9383 H   0  0  0  0  0  1           0  0  0
    4.1695   53.9863   92.5743 H   0  0  0  0  0  1           0  0  0
    3.8671   55.8637   90.6979 H   0  0  0  0  0  1           0  0  0
    4.6109   57.2031   88.7822 H   0  0  0  0  0  1           0  0  0
    5.6169   53.6606   86.6416 H   0  0  0  0  0  1           0  0  0
    5.5208   57.2954   86.2789 H   0  0  0  0  0  1           0  0  0
    6.8616   56.0213   86.1617 H   0  0  0  0  0  1           0  0  0
    6.0610   55.1408   85.3753 H   0  0  0  0  0  1           0  0  0
    4.6707   56.3654   85.4199 H   0  0  0  0  0  1           0  0  0
  1  2  1  0     0  0
  2  3  1  0     0  0
  3  4  1  0     0  0
  4  5  1  0     0  0
  4  6  1  0     0  0
  3  7  1  0     0  0
  8  7  1  0     0  0
  8  9  2  0     0  0
 10  9  1  0     0  0
 10 11  2  0     0  0
 12 11  1  0     0  0
 12 13  2  0     0  0
  8 13  1  0     0  0
 13 14  1  0     0  0
 12 15  1  0     0  0
 11 16  1  0     0  0
 10 17  1  0     0  0
 18  9  1  0     0  0
 18 19  2  0     0  0
 20 19  1  0     0  0
 20 21  1  0     0  0
 20 22  1  0     0  0
 20 23  1  0     0  0
 19 24  1  0     0  0
 24  7  2  0     0  0
 24 25  1  0     0  0
  2 26  2  0     0  0
 27 26  1  0     0  0
 27 28  2  0     0  0
 28 29  1  0     0  0
 30 29  1  0     0  0
 31 30  1  0     0  0
 31 32  1  0     0  0
  1 32  2  0     0  0
 28 32  1  0     0  0
 31 33  2  0     0  0
 34 33  1  0     0  0
 34 35  2  0     0  0
 36 35  1  0     0  0
 30 36  2  0     0  0
 36 37  1  0     0  0
 35 38  1  0     0  0
 34 39  1  0     0  0
 33 40  1  0     0  0
 29 41  1  0     0  0
 41 42  1  0     0  0
 41 43  1  0     0  0
 41 44  1  0     0  0
 27 45  1  0     0  0
 26 46  1  0     0  0
  1 47  1  0     0  0
  3 48  1  0     0  0
  3 49  1  0     0  0
  4 50  1  0     0  0
  4 51  1  0     0  0
M  END
> <Activity>
5.698970004336019

$$$$
