71P
  CDPL    08202107203D 1   1.00000     0.00000

 54 56  0     0  0            999 V2000
   14.4080   63.9760   42.1930 C   0  0  0  0  0  4           0  0  0
   15.6980   63.4350   41.7060 O   0  0  0  0  0  2           0  0  0
   16.5450   64.5050   41.6960 C   0  0  0  0  0  4           0  0  0
   17.3120   64.9340   42.8500 C   0  0  0  0  0  4           0  0  0
   17.3050   64.2370   44.1370 C   0  0  0  0  0  4           0  0  0
   16.6940   62.9660   44.0630 C   0  0  0  0  0  4           0  0  0
   16.4310   61.9790   45.0060 C   0  0  0  0  0  4           0  0  0
   16.8010   61.8700   46.3330 C   0  0  0  0  0  4           0  0  0
   16.2400   60.3930   47.1440 S   0  0  0  0  0  2           0  0  0
   17.7130   59.7200   47.8810 C   0  0  0  0  0  4           0  0  0
   17.5140   62.8100   47.0560 C   0  0  0  0  0  4           0  0  0
   17.7500   62.6080   48.2480 O   0  0  0  0  0  2           0  0  0
   18.0050   64.0150   46.5920 C   0  0  0  0  0  4           0  0  0
   17.9450   64.6470   45.3330 C   0  0  0  0  0  4           0  0  0
   18.7140   65.8200   45.6100 C   0  0  0  0  0  4           0  0  0
   17.9380   66.9510   46.2320 N   0  0  0  0  0  3           0  0  0
   16.6060   66.9710   46.5020 C   0  0  0  0  0  4           0  0  0
   15.7860   66.1200   46.1710 O   0  0  0  0  0  2           0  0  0
   16.1090   68.1850   47.2660 C   0  0  0  0  0  4           0  0  0
   19.6190   66.1010   44.4300 C   0  0  0  0  0  4           0  0  0
   18.9090   66.8730   43.4510 C   0  0  0  0  0  4           0  0  0
   18.0900   66.1080   42.5880 C   0  0  0  0  0  4           0  0  0
   18.0630   66.7690   41.3380 C   0  0  0  0  0  4           0  0  0
   17.3110   66.3000   40.2780 C   0  0  0  0  0  4           0  0  0
   17.2780   66.8890   39.0510 O   0  0  0  0  0  2           0  0  0
   18.3840   66.4860   38.2250 C   0  0  0  0  0  4           0  0  0
   16.5450   65.1780   40.4680 C   0  0  0  0  0  4           0  0  0
   15.8190   64.6900   39.4090 O   0  0  0  0  0  2           0  0  0
   14.4890   65.1470   39.1760 C   0  0  0  0  0  4           0  0  0
   13.6828   63.1901   42.2299 H   0  0  0  0  0  1           0  0  0
   14.0692   64.7430   41.5283 H   0  0  0  0  0  1           0  0  0
   14.5401   64.3857   43.1726 H   0  0  0  0  0  1           0  0  0
   16.3656   62.7097   43.0774 H   0  0  0  0  0  1           0  0  0
   15.8409   61.1640   44.6419 H   0  0  0  0  0  1           0  0  0
   17.4713   58.8156   48.3992 H   0  0  0  0  0  1           0  0  0
   18.1221   60.4281   48.5711 H   0  0  0  0  0  1           0  0  0
   18.4314   59.5116   47.1159 H   0  0  0  0  0  1           0  0  0
   18.5338   64.5784   47.3321 H   0  0  0  0  0  1           0  0  0
   19.3864   65.5323   46.3910 H   0  0  0  0  0  1           0  0  0
   18.4718   67.7968   46.4782 H   0  0  0  0  0  1           0  0  0
   15.8228   68.9493   46.5740 H   0  0  0  0  0  1           0  0  0
   16.8893   68.5516   47.8997 H   0  0  0  0  0  1           0  0  0
   15.2646   67.9097   47.8628 H   0  0  0  0  0  1           0  0  0
   19.9332   65.1757   43.9941 H   0  0  0  0  0  1           0  0  0
   20.4765   66.6485   44.7615 H   0  0  0  0  0  1           0  0  0
   19.6255   67.3982   42.8546 H   0  0  0  0  0  1           0  0  0
   18.2884   67.5768   43.9651 H   0  0  0  0  0  1           0  0  0
   18.6425   67.6592   41.2093 H   0  0  0  0  0  1           0  0  0
   18.3153   66.9728   37.2746 H   0  0  0  0  0  1           0  0  0
   18.3570   65.4255   38.0853 H   0  0  0  0  0  1           0  0  0
   19.3026   66.7599   38.7004 H   0  0  0  0  0  1           0  0  0
   14.0894   64.6567   38.3130 H   0  0  0  0  0  1           0  0  0
   14.4986   66.2045   39.0129 H   0  0  0  0  0  1           0  0  0
   13.8806   64.9229   40.0272 H   0  0  0  0  0  1           0  0  0
  1  2  1  0     0  0
  2  3  1  0     0  0
  3  4  2  0     0  0
  4  5  1  0     0  0
  5  6  2  0     0  0
  6  7  1  0     0  0
  7  8  2  0     0  0
  8  9  1  0     0  0
  9 10  1  0     0  0
  8 11  1  0     0  0
 11 12  2  0     0  0
 11 13  1  0     0  0
 13 14  2  0     0  0
  5 14  1  0     0  0
 14 15  1  0     0  0
 15 16  1  0     0  0
 16 17  1  0     0  0
 17 18  2  0     0  0
 17 19  1  0     0  0
 15 20  1  0     0  0
 20 21  1  0     0  0
 21 22  1  0     0  0
  4 22  1  0     0  0
 22 23  2  0     0  0
 23 24  1  0     0  0
 24 25  1  0     0  0
 25 26  1  0     0  0
 24 27  2  0     0  0
  3 27  1  0     0  0
 27 28  1  0     0  0
 28 29  1  0     0  0
  1 30  1  0     0  0
  1 31  1  0     0  0
  1 32  1  0     0  0
  6 33  1  0     0  0
  7 34  1  0     0  0
 10 35  1  0     0  0
 10 36  1  0     0  0
 10 37  1  0     0  0
 13 38  1  0     0  0
 15 39  1  0     0  0
 16 40  1  0     0  0
 19 41  1  0     0  0
 19 42  1  0     0  0
 19 43  1  0     0  0
 20 44  1  0     0  0
 20 45  1  0     0  0
 21 46  1  0     0  0
 21 47  1  0     0  0
 23 48  1  0     0  0
 26 49  1  0     0  0
 26 50  1  0     0  0
 26 51  1  0     0  0
 29 52  1  0     0  0
 29 53  1  0     0  0
 29 54  1  0     0  0
M  END
> <Activity>
4.764471553092451

$$$$
