84F
  CDPL    08202107203D 1   1.00000     0.00000

 50 52  0     0  0            999 V2000
   17.2680  -66.6360  -41.5640 N   0  0  0  0  0  3           0  0  0
   17.7610  -66.9400  -42.9510 C   0  0  0  0  0  4           0  0  0
   19.0430  -67.2100  -42.6120 C   0  0  0  0  0  4           0  0  0
   18.9000  -67.0710  -41.1190 C   0  0  0  0  0  4           0  0  0
   19.5230  -67.1830  -40.1190 O   0  0  0  0  0  2           0  0  0
   19.4930  -68.7080  -42.9740 C   0  0  0  0  0  4           0  0  0
   17.5910  -65.8180  -44.0400 C   0  0  0  0  0  4           0  0  0
   17.2450  -64.5070  -43.6960 C   0  0  0  0  0  4           0  0  0
   17.1200  -63.5370  -44.6980 C   0  0  0  0  0  4           0  0  0
   17.3320  -63.8910  -46.0280 C   0  0  0  0  0  4           0  0  0
   17.6660  -65.1910  -46.3720 C   0  0  0  0  0  4           0  0  0
   17.8010  -66.1510  -45.3770 C   0  0  0  0  0  4           0  0  0
   17.8830  -65.5340  -47.7160 O   0  0  0  0  0  2           0  0  0
   17.2130  -62.9360  -47.0520 O   0  0  0  0  0  2           0  0  0
   16.4710  -61.7830  -46.7110 C   0  0  0  0  0  4           0  0  0
   16.0730  -66.3130  -40.8030 C   0  0  0  0  0  4           0  0  0
   14.8570  -66.1970  -41.4290 C   0  0  0  0  0  4           0  0  0
   13.7370  -65.9180  -40.6660 C   0  0  0  0  0  4           0  0  0
   13.8210  -65.7550  -39.2710 C   0  0  0  0  0  4           0  0  0
   15.0790  -65.8930  -38.6390 C   0  0  0  0  0  4           0  0  0
   16.1890  -66.1790  -39.4220 C   0  0  0  0  0  4           0  0  0
   15.2970  -65.7650  -37.2390 O   0  0  0  0  0  2           0  0  0
   16.5960  -66.0480  -36.7540 C   0  0  0  0  0  4           0  0  0
   12.6400  -65.4620  -38.5440 O   0  0  0  0  0  2           0  0  0
   12.4560  -66.2140  -37.3550 C   0  0  0  0  0  4           0  0  0
   12.5280  -65.7890  -41.3670 O   0  0  0  0  0  2           0  0  0
   12.5750  -66.2720  -42.6970 C   0  0  0  0  0  4           0  0  0
   17.2771  -67.8155  -43.3308 H   0  0  0  0  0  1           0  0  0
   19.7311  -66.5080  -43.0348 H   0  0  0  0  0  1           0  0  0
   20.5117  -68.8549  -42.6815 H   0  0  0  0  0  1           0  0  0
   19.3987  -68.8638  -44.0284 H   0  0  0  0  0  1           0  0  0
   18.8685  -69.4036  -42.4534 H   0  0  0  0  0  1           0  0  0
   17.0766  -64.2467  -42.6719 H   0  0  0  0  0  1           0  0  0
   16.8632  -62.5300  -44.4433 H   0  0  0  0  0  1           0  0  0
   18.0682  -67.1534  -45.6390 H   0  0  0  0  0  1           0  0  0
   17.8010  -64.8736  -48.3940 H   0  0  0  0  0  1           0  0  0
   16.4369  -61.1198  -47.5500 H   0  0  0  0  0  1           0  0  0
   16.9387  -61.2893  -45.8849 H   0  0  0  0  0  1           0  0  0
   15.4756  -62.0667  -46.4399 H   0  0  0  0  0  1           0  0  0
   14.7766  -66.3202  -42.4888 H   0  0  0  0  0  1           0  0  0
   17.1459  -66.2980  -38.9583 H   0  0  0  0  0  1           0  0  0
   16.6179  -65.9126  -35.6928 H   0  0  0  0  0  1           0  0  0
   17.3001  -65.3856  -37.2126 H   0  0  0  0  0  1           0  0  0
   16.8522  -67.0598  -36.9898 H   0  0  0  0  0  1           0  0  0
   11.5416  -65.9188  -36.8842 H   0  0  0  0  0  1           0  0  0
   13.2741  -66.0344  -36.6892 H   0  0  0  0  0  1           0  0  0
   12.4135  -67.2559  -37.5949 H   0  0  0  0  0  1           0  0  0
   11.6194  -66.1377  -43.1592 H   0  0  0  0  0  1           0  0  0
   12.8247  -67.3124  -42.6900 H   0  0  0  0  0  1           0  0  0
   13.3164  -65.7309  -43.2470 H   0  0  0  0  0  1           0  0  0
  1  2  1  0     0  0
  2  3  1  0     0  0
  3  4  1  0     0  0
  1  4  1  0     0  0
  4  5  2  0     0  0
  3  6  1  0     0  0
  2  7  1  0     0  0
  7  8  1  0     0  0
  8  9  2  0     0  0
  9 10  1  0     0  0
 10 11  2  0     0  0
 11 12  1  0     0  0
  7 12  2  0     0  0
 11 13  1  0     0  0
 10 14  1  0     0  0
 14 15  1  0     0  0
  1 16  1  0     0  0
 16 17  2  0     0  0
 17 18  1  0     0  0
 18 19  2  0     0  0
 19 20  1  0     0  0
 20 21  2  0     0  0
 16 21  1  0     0  0
 20 22  1  0     0  0
 22 23  1  0     0  0
 19 24  1  0     0  0
 24 25  1  0     0  0
 18 26  1  0     0  0
 26 27  1  0     0  0
  2 28  1  0     0  0
  3 29  1  0     0  0
  6 30  1  0     0  0
  6 31  1  0     0  0
  6 32  1  0     0  0
  8 33  1  0     0  0
  9 34  1  0     0  0
 12 35  1  0     0  0
 13 36  1  0     0  0
 15 37  1  0     0  0
 15 38  1  0     0  0
 15 39  1  0     0  0
 17 40  1  0     0  0
 21 41  1  0     0  0
 23 42  1  0     0  0
 23 43  1  0     0  0
 23 44  1  0     0  0
 25 45  1  0     0  0
 25 46  1  0     0  0
 25 47  1  0     0  0
 27 48  1  0     0  0
 27 49  1  0     0  0
 27 50  1  0     0  0
M  END
> <Activity>
5.769551078621726

$$$$
