NV4
  CDPL    08202107203D 1   1.00000     0.00000

 58 63  0     0  0            999 V2000
  -18.7300   65.1020  -45.3170 C   0  0  0  0  0  4           0  0  0
  -19.3010   66.4760  -45.4690 C   0  0  0  0  0  4           0  0  0
  -19.9620   67.0120  -44.1850 C   0  0  0  0  0  4           0  0  0
  -19.8380   66.1750  -42.9000 C   0  0  0  0  0  4           0  0  0
  -18.6610   65.1850  -42.7040 C   0  0  0  0  0  4           0  0  0
  -17.4090   65.5730  -41.9670 C   0  0  0  0  0  4           0  0  0
  -16.2110   65.8700  -42.6220 C   0  0  0  0  0  4           0  0  0
  -15.0290   66.1680  -41.9140 C   0  0  0  0  0  4           0  0  0
  -13.8770   66.4810  -42.6060 O   0  0  0  0  0  2           0  0  0
  -13.8390   66.3900  -44.0340 C   0  0  0  0  0  4           0  0  0
  -15.0160   66.2800  -40.4310 C   0  0  0  0  0  4           0  0  0
  -13.8530   65.8510  -39.7100 O   0  0  0  0  0  2           0  0  0
  -13.2490   64.6720  -40.2280 C   0  0  0  0  0  4           0  0  0
  -16.2910   65.8720  -39.8020 C   0  0  0  0  0  4           0  0  0
  -16.3170   65.9020  -38.4350 O   0  0  0  0  0  2           0  0  0
  -17.4380   65.3950  -37.7230 C   0  0  0  0  0  4           0  0  0
  -17.4270   65.5720  -40.5680 C   0  0  0  0  0  4           0  0  0
  -18.4180   64.4750  -43.9850 C   0  0  0  0  0  4           0  0  0
  -17.8980   63.1770  -43.9160 C   0  0  0  0  0  4           0  0  0
  -17.6850   62.5010  -45.1020 C   0  0  0  0  0  4           0  0  0
  -17.9800   63.1070  -46.3910 C   0  0  0  0  0  4           0  0  0
  -18.4910   64.3900  -46.5010 C   0  0  0  0  0  4           0  0  0
  -17.6850   62.2010  -47.3560 O   0  0  0  0  0  2           0  0  0
  -17.2450   60.9750  -46.7320 C   0  0  0  0  0  4           0  0  0
  -17.1970   61.2550  -45.3270 O   0  0  0  0  0  2           0  0  0
  -20.0830   67.2140  -41.8540 C   0  0  0  0  0  4           0  0  0
  -20.2710   66.9750  -40.6720 O   0  0  0  0  0  2           0  0  0
  -20.1530   68.5440  -42.4420 O   0  0  0  0  0  2           0  0  0
  -19.7720   68.4850  -43.8170 C   0  0  0  0  0  4           0  0  0
  -18.1500   67.6150  -46.2050 S   0  0  0  0  0  2           0  0  0
  -19.0160   68.9280  -46.9880 C   0  0  0  0  0  4           0  0  0
  -20.3490   68.9290  -47.1910 N   0  0  0  0  0  3           0  0  0
  -20.6110   70.1000  -47.8160 C   0  0  0  0  0  4           0  0  0
  -19.4470   70.7790  -47.9790 N   0  0  0  0  0  3           0  0  0
  -18.3910   70.0230  -47.4390 N   0  0  0  0  0  3           0  0  0
  -20.0976   66.3778  -46.1766 H   0  0  0  0  0  1           0  0  0
  -21.0011   66.9462  -44.4317 H   0  0  0  0  0  1           0  0  0
  -20.6909   65.5291  -42.8882 H   0  0  0  0  0  1           0  0  0
  -19.0774   64.4403  -42.0583 H   0  0  0  0  0  1           0  0  0
  -16.1902   65.8713  -43.6918 H   0  0  0  0  0  1           0  0  0
  -12.8675   66.6708  -44.3836 H   0  0  0  0  0  1           0  0  0
  -14.5724   67.0469  -44.4529 H   0  0  0  0  0  1           0  0  0
  -14.0487   65.3842  -44.3330 H   0  0  0  0  0  1           0  0  0
  -12.3930   64.4207  -39.6372 H   0  0  0  0  0  1           0  0  0
  -12.9465   64.8414  -41.2403 H   0  0  0  0  0  1           0  0  0
  -13.9532   63.8670  -40.1962 H   0  0  0  0  0  1           0  0  0
  -17.2725   65.5056  -36.6717 H   0  0  0  0  0  1           0  0  0
  -17.5699   64.3591  -37.9563 H   0  0  0  0  0  1           0  0  0
  -18.3153   65.9387  -38.0051 H   0  0  0  0  0  1           0  0  0
  -18.3404   65.3338  -40.0642 H   0  0  0  0  0  1           0  0  0
  -17.6725   62.7225  -42.9739 H   0  0  0  0  0  1           0  0  0
  -18.6964   64.8231  -47.4576 H   0  0  0  0  0  1           0  0  0
  -16.2756   60.6996  -47.0916 H   0  0  0  0  0  1           0  0  0
  -17.9375   60.1843  -46.9321 H   0  0  0  0  0  1           0  0  0
  -18.7514   68.7809  -43.9429 H   0  0  0  0  0  1           0  0  0
  -20.4012   69.1114  -44.4142 H   0  0  0  0  0  1           0  0  0
  -21.0228   68.1960  -46.9271 H   0  0  0  0  0  1           0  0  0
  -21.5772   70.4357  -48.1302 H   0  0  0  0  0  1           0  0  0
  1  2  1  0     0  0
  3  2  1  0     0  0
  3  4  1  0     0  0
  4  5  1  0     0  0
  5  6  1  0     0  0
  6  7  2  0     0  0
  7  8  1  0     0  0
  8  9  1  0     0  0
  9 10  1  0     0  0
  8 11  2  0     0  0
 11 12  1  0     0  0
 12 13  1  0     0  0
 11 14  1  0     0  0
 14 15  1  0     0  0
 15 16  1  0     0  0
 14 17  2  0     0  0
  6 17  1  0     0  0
  5 18  1  0     0  0
  1 18  2  0     0  0
 19 18  1  0     0  0
 20 19  2  0     0  0
 21 20  1  0     0  0
 22 21  2  0     0  0
  1 22  1  0     0  0
 21 23  1  0     0  0
 23 24  1  0     0  0
 24 25  1  0     0  0
 25 20  1  0     0  0
  4 26  1  0     0  0
 27 26  2  0     0  0
 26 28  1  0     0  0
 28 29  1  0     0  0
  3 29  1  0     0  0
  2 30  1  0     0  0
 30 31  1  0     0  0
 31 32  1  0     0  0
 32 33  1  0     0  0
 33 34  2  0     0  0
 34 35  1  0     0  0
 31 35  2  0     0  0
  2 36  1  0     0  0
  3 37  1  0     0  0
  4 38  1  0     0  0
  5 39  1  0     0  0
  7 40  1  0     0  0
 10 41  1  0     0  0
 10 42  1  0     0  0
 10 43  1  0     0  0
 13 44  1  0     0  0
 13 45  1  0     0  0
 13 46  1  0     0  0
 16 47  1  0     0  0
 16 48  1  0     0  0
 16 49  1  0     0  0
 17 50  1  0     0  0
 19 51  1  0     0  0
 22 52  1  0     0  0
 24 53  1  0     0  0
 24 54  1  0     0  0
 29 55  1  0     0  0
 29 56  1  0     0  0
 32 57  1  0     0  0
 33 58  1  0     0  0
M  END
> <Activity>
4.2073282108584324

$$$$
