A9Q
  CDPL    08202107213D 1   1.00000     0.00000

 50 52  0     0  0            999 V2000
   18.4750   66.9690   44.8170 C   0  0  0  0  0  4           0  0  0
   17.9390   65.8630   44.1390 C   0  0  0  0  0  4           0  0  0
   17.4250   64.8020   44.8980 C   0  0  0  0  0  4           0  0  0
   17.4390   64.8410   46.3080 C   0  0  0  0  0  4           0  0  0
   17.9710   65.9660   46.9780 C   0  0  0  0  0  4           0  0  0
   18.4930   67.0180   46.2200 C   0  0  0  0  0  4           0  0  0
   18.0460   66.0930   48.3720 O   0  0  0  0  0  2           0  0  0
   17.0260   66.9110   49.3730 S   0  0  0  0  0  6           0  0  0
   15.5760   66.0430   49.4310 N   0  0  0  0  0  3           0  0  0
   17.5600   66.9290   50.7400 O   0  0  0  0  0  2           0  0  0
   16.7950   68.2540   48.8320 O   0  0  0  0  0  2           0  0  0
   16.9150   63.7620   47.0110 O   0  0  0  0  0  2           0  0  0
   16.7290   62.5460   46.2840 C   0  0  0  0  0  4           0  0  0
   17.9190   65.8060   42.6370 C   0  0  0  0  0  4           0  0  0
   18.3470   67.0710   41.9960 N   0  0  0  0  0  3           0  0  0
   18.0930   67.2750   40.5600 C   0  0  0  0  0  4           0  0  0
   16.6340   67.1270   40.2600 C   0  0  0  0  0  4           0  0  0
   16.1910   66.6640   39.0120 C   0  0  0  0  0  4           0  0  0
   14.8280   66.5160   38.7320 C   0  0  0  0  0  4           0  0  0
   13.9000   66.8330   39.7110 C   0  0  0  0  0  4           0  0  0
   14.3400   67.2920   40.9580 C   0  0  0  0  0  4           0  0  0
   15.6980   67.4390   41.2340 C   0  0  0  0  0  4           0  0  0
   13.4480   67.6140   41.9640 O   0  0  0  0  0  2           0  0  0
   12.1280   67.1070   41.8210 C   0  0  0  0  0  4           0  0  0
   17.1270   66.3660   38.0400 O   0  0  0  0  0  2           0  0  0
   16.8380   66.8160   36.7150 C   0  0  0  0  0  4           0  0  0
   18.8930   68.1490   42.6550 C   0  0  0  0  0  4           0  0  0
   19.0170   68.0850   44.0720 N   0  0  0  0  0  3           0  0  0
   19.2480   69.1520   42.0070 O   0  0  0  0  0  2           0  0  0
   17.0153   63.9485   44.3994 H   0  0  0  0  0  1           0  0  0
   18.9109   67.8700   46.7144 H   0  0  0  0  0  1           0  0  0
   15.4418   65.3115   50.1436 H   0  0  0  0  0  1           0  0  0
   14.8270   66.2457   48.7537 H   0  0  0  0  0  1           0  0  0
   16.3229   61.8000   46.9347 H   0  0  0  0  0  1           0  0  0
   17.6707   62.2114   45.9017 H   0  0  0  0  0  1           0  0  0
   16.0542   62.7160   45.4712 H   0  0  0  0  0  1           0  0  0
   16.9216   65.5848   42.3190 H   0  0  0  0  0  1           0  0  0
   18.5766   65.0245   42.3182 H   0  0  0  0  0  1           0  0  0
   18.6434   66.5494   39.9984 H   0  0  0  0  0  1           0  0  0
   18.4118   68.2579   40.2821 H   0  0  0  0  0  1           0  0  0
   14.5066   66.1627   37.7745 H   0  0  0  0  0  1           0  0  0
   12.8534   66.7276   39.5149 H   0  0  0  0  0  1           0  0  0
   16.0167   67.7909   42.1929 H   0  0  0  0  0  1           0  0  0
   11.5337   67.4196   42.6540 H   0  0  0  0  0  1           0  0  0
   12.1584   66.0380   41.7857 H   0  0  0  0  0  1           0  0  0
   11.6982   67.4817   40.9156 H   0  0  0  0  0  1           0  0  0
   17.6319   66.5262   36.0588 H   0  0  0  0  0  1           0  0  0
   16.7446   67.8819   36.7128 H   0  0  0  0  0  1           0  0  0
   15.9211   66.3769   36.3812 H   0  0  0  0  0  1           0  0  0
   19.4994   68.8440   44.5741 H   0  0  0  0  0  1           0  0  0
  1  2  2  0     0  0
  2  3  1  0     0  0
  3  4  2  0     0  0
  4  5  1  0     0  0
  6  5  2  0     0  0
  1  6  1  0     0  0
  5  7  1  0     0  0
  7  8  1  0     0  0
  9  8  1  0     0  0
 10  8  2  0     0  0
 11  8  2  0     0  0
  4 12  1  0     0  0
 13 12  1  0     0  0
  2 14  1  0     0  0
 14 15  1  0     0  0
 16 15  1  0     0  0
 16 17  1  0     0  0
 18 17  1  0     0  0
 18 19  2  0     0  0
 19 20  1  0     0  0
 20 21  2  0     0  0
 22 21  1  0     0  0
 17 22  2  0     0  0
 21 23  1  0     0  0
 24 23  1  0     0  0
 18 25  1  0     0  0
 26 25  1  0     0  0
 27 15  1  0     0  0
 27 28  1  0     0  0
  1 28  1  0     0  0
 27 29  2  0     0  0
  3 30  1  0     0  0
  6 31  1  0     0  0
  9 32  1  0     0  0
  9 33  1  0     0  0
 13 34  1  0     0  0
 13 35  1  0     0  0
 13 36  1  0     0  0
 14 37  1  0     0  0
 14 38  1  0     0  0
 16 39  1  0     0  0
 16 40  1  0     0  0
 19 41  1  0     0  0
 20 42  1  0     0  0
 22 43  1  0     0  0
 24 44  1  0     0  0
 24 45  1  0     0  0
 24 46  1  0     0  0
 26 47  1  0     0  0
 26 48  1  0     0  0
 26 49  1  0     0  0
 28 50  1  0     0  0
M  END
> <Activity>
5.6020599913279625

$$$$
