LOC
  CDPL    08202107203D 1   1.00000     0.00000

 54 56  0     0  0            999 V2000
  -15.5730   69.6110  -45.8450 O   0  0  0  0  0  2           0  0  0
  -16.5890   69.9790  -46.2650 C   0  0  0  0  0  4           0  0  0
  -16.6050   70.9010  -47.4610 C   0  0  0  0  0  4           0  0  0
  -17.8840   69.5870  -45.6590 N   0  0  0  0  0  3           0  0  0
  -17.9640   68.7460  -44.5630 C   0  0  0  0  0  4           0  0  0
  -17.4460   67.3110  -44.9080 C   0  0  0  0  0  4           0  0  0
  -18.0110   66.7640  -46.1730 C   0  0  0  0  0  4           0  0  0
  -17.7600   65.4600  -46.8150 C   0  0  0  0  0  4           0  0  0
  -17.0780   64.3790  -46.0860 C   0  0  0  0  0  4           0  0  0
  -16.7310   64.3470  -44.6990 C   0  0  0  0  0  4           0  0  0
  -16.9720   65.3030  -43.7290 C   0  0  0  0  0  4           0  0  0
  -16.9770   66.6750  -43.8830 C   0  0  0  0  0  4           0  0  0
  -17.1750   67.0880  -42.5150 C   0  0  0  0  0  4           0  0  0
  -18.2580   67.6390  -41.9160 C   0  0  0  0  0  4           0  0  0
  -19.5630   67.8580  -42.7290 C   0  0  0  0  0  4           0  0  0
  -19.3910   68.7740  -43.9860 C   0  0  0  0  0  4           0  0  0
  -18.2100   68.0250  -40.4870 C   0  0  0  0  0  4           0  0  0
  -17.0120   67.8470  -39.7450 C   0  0  0  0  0  4           0  0  0
  -15.9010   67.3010  -40.3600 C   0  0  0  0  0  4           0  0  0
  -15.9210   66.9130  -41.7690 C   0  0  0  0  0  4           0  0  0
  -14.7020   66.3520  -42.3360 O   0  0  0  0  0  2           0  0  0
  -13.7330   67.3220  -42.7430 C   0  0  0  0  0  4           0  0  0
  -14.7030   67.1210  -39.5890 O   0  0  0  0  0  2           0  0  0
  -14.6430   65.8430  -38.9270 C   0  0  0  0  0  4           0  0  0
  -16.9350   68.2100  -38.3520 O   0  0  0  0  0  2           0  0  0
  -17.7480   69.2500  -37.9520 C   0  0  0  0  0  4           0  0  0
  -16.3160   63.4860  -46.9200 O   0  0  0  0  0  2           0  0  0
  -16.9190   62.2930  -47.1910 C   0  0  0  0  0  4           0  0  0
  -18.1360   65.2850  -47.9860 O   0  0  0  0  0  2           0  0  0
  -16.6437   70.3200  -48.3587 H   0  0  0  0  0  1           0  0  0
  -15.7182   71.4998  -47.4616 H   0  0  0  0  0  1           0  0  0
  -17.4644   71.5364  -47.4100 H   0  0  0  0  0  1           0  0  0
  -18.7551   69.9537  -46.0683 H   0  0  0  0  0  1           0  0  0
  -17.3130   69.1358  -43.8086 H   0  0  0  0  0  1           0  0  0
  -18.6943   67.4067  -46.6878 H   0  0  0  0  0  1           0  0  0
  -16.2177   63.4683  -44.3684 H   0  0  0  0  0  1           0  0  0
  -17.1785   64.9368  -42.7451 H   0  0  0  0  0  1           0  0  0
  -20.2888   68.3070  -42.0836 H   0  0  0  0  0  1           0  0  0
  -19.9186   66.9033  -43.0559 H   0  0  0  0  0  1           0  0  0
  -19.6266   69.7803  -43.7089 H   0  0  0  0  0  1           0  0  0
  -20.0711   68.4441  -44.7434 H   0  0  0  0  0  1           0  0  0
  -19.0767   68.4374  -40.0141 H   0  0  0  0  0  1           0  0  0
  -12.8760   66.8231  -43.1449 H   0  0  0  0  0  1           0  0  0
  -13.4401   67.9097  -41.8982 H   0  0  0  0  0  1           0  0  0
  -14.1580   67.9589  -43.4904 H   0  0  0  0  0  1           0  0  0
  -13.7310   65.7712  -38.3721 H   0  0  0  0  0  1           0  0  0
  -14.6790   65.0613  -39.6567 H   0  0  0  0  0  1           0  0  0
  -15.4745   65.7472  -38.2604 H   0  0  0  0  0  1           0  0  0
  -17.6081   69.4304  -36.9066 H   0  0  0  0  0  1           0  0  0
  -18.7706   68.9945  -38.1361 H   0  0  0  0  0  1           0  0  0
  -17.4960   70.1319  -38.5030 H   0  0  0  0  0  1           0  0  0
  -16.2789   61.7030  -47.8131 H   0  0  0  0  0  1           0  0  0
  -17.8453   62.4684  -47.6970 H   0  0  0  0  0  1           0  0  0
  -17.1059   61.7717  -46.2754 H   0  0  0  0  0  1           0  0  0
  1  2  2  0     0  0
  2  3  1  0     0  0
  2  4  1  0     0  0
  4  5  1  0     0  0
  5  6  1  0     0  0
  6  7  2  0     0  0
  7  8  1  0     0  0
  9  8  1  0     0  0
 10  9  2  0     0  0
 11 10  1  0     0  0
 12 11  2  0     0  0
  6 12  1  0     0  0
 13 12  1  0     0  0
 14 13  1  0     0  0
 15 14  1  0     0  0
 16 15  1  0     0  0
  5 16  1  0     0  0
 14 17  2  0     0  0
 17 18  1  0     0  0
 18 19  2  0     0  0
 19 20  1  0     0  0
 20 21  1  0     0  0
 21 22  1  0     0  0
 20 13  2  0     0  0
 19 23  1  0     0  0
 23 24  1  0     0  0
 18 25  1  0     0  0
 25 26  1  0     0  0
  9 27  1  0     0  0
 27 28  1  0     0  0
  8 29  2  0     0  0
  3 30  1  0     0  0
  3 31  1  0     0  0
  3 32  1  0     0  0
  4 33  1  0     0  0
  5 34  1  0     0  0
  7 35  1  0     0  0
 10 36  1  0     0  0
 11 37  1  0     0  0
 15 38  1  0     0  0
 15 39  1  0     0  0
 16 40  1  0     0  0
 16 41  1  0     0  0
 17 42  1  0     0  0
 22 43  1  0     0  0
 22 44  1  0     0  0
 22 45  1  0     0  0
 24 46  1  0     0  0
 24 47  1  0     0  0
 24 48  1  0     0  0
 26 49  1  0     0  0
 26 50  1  0     0  0
 26 51  1  0     0  0
 28 52  1  0     0  0
 28 53  1  0     0  0
 28 54  1  0     0  0
M  END
> <Activity>
4.957424487559809

$$$$
