93X
  CDPL    08202107203D 1   1.00000     0.00000

 51 53  0     0  0            999 V2000
   19.7100  -68.3370  -43.3100 C   0  0  0  0  0  4           0  0  0
   18.9210  -69.3560  -42.7510 O   0  0  0  0  0  2           0  0  0
   19.1800  -66.9180  -42.7890 C   0  0  0  0  0  4           0  0  0
   19.0500  -66.8240  -41.2890 C   0  0  0  0  0  4           0  0  0
   19.6880  -66.8970  -40.2900 O   0  0  0  0  0  2           0  0  0
   17.3940  -66.4660  -41.6930 N   0  0  0  0  0  3           0  0  0
   16.1980  -66.1880  -40.9070 C   0  0  0  0  0  4           0  0  0
   16.3450  -66.0660  -39.5270 C   0  0  0  0  0  4           0  0  0
   15.2470  -65.8100  -38.7080 C   0  0  0  0  0  4           0  0  0
   15.4790  -65.7010  -37.3330 O   0  0  0  0  0  2           0  0  0
   16.6100  -66.4150  -36.9150 C   0  0  0  0  0  4           0  0  0
   13.9690  -65.6800  -39.2890 C   0  0  0  0  0  4           0  0  0
   12.7780  -65.4060  -38.5460 O   0  0  0  0  0  2           0  0  0
   12.6480  -65.9670  -37.2380 C   0  0  0  0  0  4           0  0  0
   13.8560  -65.8100  -40.6820 C   0  0  0  0  0  4           0  0  0
   12.6070  -65.6830  -41.3040 O   0  0  0  0  0  2           0  0  0
   12.7170  -65.9990  -42.6850 C   0  0  0  0  0  4           0  0  0
   14.9590  -66.0630  -41.4910 C   0  0  0  0  0  4           0  0  0
   17.8870  -66.7100  -43.0830 C   0  0  0  0  0  4           0  0  0
   17.6620  -65.5410  -44.0970 C   0  0  0  0  0  4           0  0  0
   17.8800  -65.8130  -45.4540 C   0  0  0  0  0  4           0  0  0
   17.6980  -64.8120  -46.4130 C   0  0  0  0  0  4           0  0  0
   17.9160  -65.0650  -47.7950 O   0  0  0  0  0  2           0  0  0
   17.2990  -63.5420  -46.0030 C   0  0  0  0  0  4           0  0  0
   17.1240  -62.5740  -47.0110 O   0  0  0  0  0  2           0  0  0
   16.7380  -61.2910  -46.5710 C   0  0  0  0  0  4           0  0  0
   17.0730  -63.2620  -44.6460 C   0  0  0  0  0  4           0  0  0
   17.2540  -64.2680  -43.6770 C   0  0  0  0  0  4           0  0  0
   19.6413  -68.3753  -44.3771 H   0  0  0  0  0  1           0  0  0
   20.7294  -68.4696  -43.0132 H   0  0  0  0  0  1           0  0  0
   19.2310  -70.2003  -43.0568 H   0  0  0  0  0  1           0  0  0
   19.8110  -66.1484  -43.1820 H   0  0  0  0  0  1           0  0  0
   17.3158  -66.1705  -39.0893 H   0  0  0  0  0  1           0  0  0
   16.7372  -66.2955  -35.8593 H   0  0  0  0  0  1           0  0  0
   17.4749  -66.0424  -37.4229 H   0  0  0  0  0  1           0  0  0
   16.4815  -67.4524  -37.1436 H   0  0  0  0  0  1           0  0  0
   11.7100  -65.6729  -36.8154 H   0  0  0  0  0  1           0  0  0
   13.4451  -65.6139  -36.6176 H   0  0  0  0  0  1           0  0  0
   12.6916  -67.0342  -37.3017 H   0  0  0  0  0  1           0  0  0
   11.7590  -65.8993  -43.1511 H   0  0  0  0  0  1           0  0  0
   13.0637  -67.0054  -42.7941 H   0  0  0  0  0  1           0  0  0
   13.4111  -65.3303  -43.1497 H   0  0  0  0  0  1           0  0  0
   14.8454  -66.1588  -42.5506 H   0  0  0  0  0  1           0  0  0
   17.4376  -67.5897  -43.4943 H   0  0  0  0  0  1           0  0  0
   18.1873  -66.7918  -45.7580 H   0  0  0  0  0  1           0  0  0
   18.1908  -65.9278  -48.0824 H   0  0  0  0  0  1           0  0  0
   16.6349  -60.6407  -47.4145 H   0  0  0  0  0  1           0  0  0
   17.4834  -60.9016  -45.9095 H   0  0  0  0  0  1           0  0  0
   15.8029  -61.3572  -46.0552 H   0  0  0  0  0  1           0  0  0
   16.7627  -62.2825  -44.3473 H   0  0  0  0  0  1           0  0  0
   17.0833  -64.0642  -42.6406 H   0  0  0  0  0  1           0  0  0
  1  2  1  0     0  0
  1  3  1  0     0  0
  3  4  1  0     0  0
  4  5  2  0     0  0
  4  6  1  0     0  0
  6  7  1  0     0  0
  7  8  2  0     0  0
  8  9  1  0     0  0
  9 10  1  0     0  0
 10 11  1  0     0  0
  9 12  2  0     0  0
 12 13  1  0     0  0
 13 14  1  0     0  0
 12 15  1  0     0  0
 15 16  1  0     0  0
 16 17  1  0     0  0
 15 18  2  0     0  0
  7 18  1  0     0  0
  6 19  1  0     0  0
  3 19  1  0     0  0
 19 20  1  0     0  0
 20 21  2  0     0  0
 21 22  1  0     0  0
 22 23  1  0     0  0
 22 24  2  0     0  0
 24 25  1  0     0  0
 25 26  1  0     0  0
 24 27  1  0     0  0
 27 28  2  0     0  0
 20 28  1  0     0  0
  1 29  1  0     0  0
  1 30  1  0     0  0
  2 31  1  0     0  0
  3 32  1  0     0  0
  8 33  1  0     0  0
 11 34  1  0     0  0
 11 35  1  0     0  0
 11 36  1  0     0  0
 14 37  1  0     0  0
 14 38  1  0     0  0
 14 39  1  0     0  0
 17 40  1  0     0  0
 17 41  1  0     0  0
 17 42  1  0     0  0
 18 43  1  0     0  0
 19 44  1  0     0  0
 21 45  1  0     0  0
 23 46  1  0     0  0
 26 47  1  0     0  0
 26 48  1  0     0  0
 26 49  1  0     0  0
 27 50  1  0     0  0
 28 51  1  0     0  0
M  END
> <Activity>
5.455931955649724

$$$$
